[TITLE]
Carelmapu

[JUNCTIONS]
;ID              	Elev        	Demand      	Pattern         
 2               	0           	0           	                	;
 3               	0           	0           	                	;
 4               	0           	0           	                	;
 5               	0           	0           	                	;
 6               	0           	0           	                	;
 7               	0           	0           	                	;
 8               	0           	0           	                	;
 9               	0           	0           	                	;
 10              	0           	0           	                	;
 11              	0           	0           	                	;
 12              	0           	0           	                	;
 13              	0           	0           	                	;
 14              	0           	0           	                	;
 15              	0           	0           	                	;
 16              	0           	0           	                	;
 17              	0           	0           	                	;
 18              	0           	0           	                	;
 19              	0           	0           	                	;
 20              	0           	0           	                	;
 21              	0           	0           	                	;
 22              	0           	0           	                	;
 23              	0           	0           	                	;
 24              	0           	0           	                	;
 25              	0           	0           	                	;
 26              	0           	0           	                	;
 27              	0           	0           	                	;
 28              	0           	0           	                	;
 29              	0           	0           	                	;
 30              	0           	0           	                	;
 31              	0           	0           	                	;
 32              	0           	0           	                	;
 33              	0           	0           	                	;
 34              	0           	0           	                	;
 35              	0           	0           	                	;
 36              	0           	0           	                	;
 37              	0           	0           	                	;
 38              	0           	0           	                	;
 39              	0           	0           	                	;
 40              	0           	0           	                	;
 41              	0           	0           	                	;
 42              	0           	0           	                	;
 43              	0           	0           	                	;
 44              	0           	0           	                	;
 45              	0           	0           	                	;
 46              	0           	0           	                	;
 47              	0           	0           	                	;
 48              	0           	0           	                	;
 49              	0           	0           	                	;
 50              	0           	0           	                	;
 51              	0           	0           	                	;
 52              	0           	0           	                	;
 53              	0           	0           	                	;
 54              	0           	0           	                	;
 55              	0           	0           	                	;
 56              	0           	0           	                	;
 57              	0           	0           	                	;
 58              	0           	0           	                	;
 59              	0           	0           	                	;
 60              	0           	0           	                	;
 61              	0           	0           	                	;
 62              	0           	0           	                	;
 63              	0           	0           	                	;
 64              	0           	0           	                	;
 65              	0           	0           	                	;
 66              	0           	10          	                	;
 67              	0           	0           	                	;
 68              	0           	0           	                	;
 69              	0           	0           	                	;
 70              	0           	0           	                	;
 71              	0           	0           	                	;
 72              	0           	0           	                	;
 73              	0           	0           	                	;
 74              	0           	0           	                	;
 80              	0           	0           	                	;
 81              	0           	0           	                	;
 82              	0           	0           	                	;
 83              	0           	0           	                	;
 84              	0           	0           	                	;
 85              	0           	0           	                	;
 86              	0           	0           	                	;
 87              	0           	0           	                	;
 88              	0           	0           	                	;
 89              	0           	0           	                	;
 90              	0           	0           	                	;
 91              	0           	0           	                	;
 92              	0           	0           	                	;
 93              	0           	0           	                	;
 94              	0           	0           	                	;
 95              	0           	0           	                	;
 96              	0           	0           	                	;
 97              	0           	0           	                	;
 98              	0           	0           	                	;
 99              	0           	0           	                	;
 100             	0           	0           	                	;
 101             	0           	0           	                	;
 102             	0           	0           	                	;
 103             	0           	0           	                	;
 104             	0           	0           	                	;
 105             	0           	0           	                	;
 106             	0           	0           	                	;
 107             	0           	0           	                	;
 108             	0           	0           	                	;
 109             	0           	0           	                	;
 110             	0           	0           	                	;
 111             	0           	0           	                	;
 112             	0           	0           	                	;
 113             	0           	0           	                	;

[RESERVOIRS]
;ID              	Head        	Pattern         

[TANKS]
;ID              	Elevation   	InitLevel   	MinLevel    	MaxLevel    	Diameter    	MinVol      	VolCurve
 1               	30          	10          	0           	20          	50          	0           	                	;

[PIPES]
;ID              	Node1           	Node2           	Length      	Diameter    	Roughness   	MinorLoss   	Status
 1               	2               	3               	1000        	300         	0.1         	0           	Open  	;
 2               	3               	4               	1000        	300         	0.1         	0           	Open  	;
 4               	4               	5               	1000        	300         	0.1         	0           	Open  	;
 5               	6               	5               	1000        	300         	0.1         	0           	Open  	;
 6               	6               	7               	1000        	300         	0.1         	0           	Open  	;
 7               	7               	9               	1000        	300         	0.1         	0           	Open  	;
 9               	11              	9               	1000        	300         	0.1         	0           	Open  	;
 10              	15              	11              	1000        	300         	0.1         	0           	Open  	;
 11              	14              	15              	1000        	300         	0.1         	0           	Open  	;
 12              	16              	12              	1000        	300         	0.1         	0           	Open  	;
 13              	17              	16              	1000        	300         	0.1         	0           	Open  	;
 14              	18              	14              	1000        	300         	0.1         	0           	Open  	;
 15              	22              	17              	1000        	300         	0.1         	0           	Open  	;
 16              	13              	14              	1000        	300         	0.1         	0           	Open  	;
 17              	20              	19              	1000        	300         	0.1         	0           	Open  	;
 18              	18              	19              	1000        	300         	0.1         	0           	Open  	;
 19              	19              	21              	1000        	300         	0.1         	0           	Open  	;
 20              	22              	21              	1000        	300         	0.1         	0           	Open  	;
 21              	23              	19              	1000        	300         	0.1         	0           	Open  	;
 22              	24              	19              	1000        	300         	0.1         	0           	Open  	;
 23              	25              	21              	1000        	300         	0.1         	0           	Open  	;
 24              	21              	26              	1000        	300         	0.1         	0           	Open  	;
 25              	27              	26              	1000        	300         	0.1         	0           	Open  	;
 26              	28              	27              	1000        	300         	0.1         	0           	Open  	;
 27              	27              	29              	1000        	300         	0.1         	0           	Open  	;
 28              	30              	29              	1000        	300         	0.1         	0           	Open  	;
 29              	35              	30              	1000        	300         	0.1         	0           	Open  	;
 30              	36              	35              	1000        	300         	0.1         	0           	Open  	;
 31              	36              	37              	1000        	300         	0.1         	0           	Open  	;
 32              	38              	37              	1000        	300         	0.1         	0           	Open  	;
 33              	38              	41              	1000        	300         	0.1         	0           	Open  	;
 34              	40              	41              	1000        	300         	0.1         	0           	Open  	;
 35              	50              	40              	1000        	300         	0.1         	0           	Open  	;
 36              	51              	50              	1000        	300         	0.1         	0           	Open  	;
 37              	52              	51              	1000        	300         	0.1         	0           	Open  	;
 38              	53              	52              	1000        	300         	0.1         	0           	Open  	;
 39              	54              	53              	1000        	300         	0.1         	0           	Open  	;
 40              	54              	55              	1000        	300         	0.1         	0           	Open  	;
 41              	34              	38              	1000        	300         	0.1         	0           	Open  	;
 42              	55              	56              	1000        	300         	0.1         	0           	Open  	;
 43              	57              	56              	1000        	300         	0.1         	0           	Open  	;
 44              	58              	57              	1000        	300         	0.1         	0           	Open  	;
 45              	49              	58              	1000        	300         	0.1         	0           	Open  	;
 46              	62              	49              	1000        	300         	0.1         	0           	Open  	;
 47              	42              	49              	1000        	300         	0.1         	0           	Open  	;
 48              	61              	62              	1000        	300         	0.1         	0           	Open  	;
 49              	60              	61              	1000        	300         	0.1         	0           	Open  	;
 50              	59              	60              	1000        	300         	0.1         	0           	Open  	;
 51              	63              	59              	1000        	300         	0.1         	0           	Open  	;
 52              	44              	43              	1000        	300         	0.1         	0           	Open  	;
 53              	42              	43              	1000        	300         	0.1         	0           	Open  	;
 54              	46              	45              	1000        	300         	0.1         	0           	Open  	;
 55              	42              	45              	1000        	300         	0.1         	0           	Open  	;
 56              	47              	42              	1000        	300         	0.1         	0           	Open  	;
 57              	39              	40              	1000        	300         	0.1         	0           	Open  	;
 58              	64              	63              	1000        	300         	0.1         	0           	Open  	;
 59              	65              	64              	1000        	300         	0.1         	0           	Open  	;
 60              	66              	65              	1000        	300         	0.1         	0           	Open  	;
 61              	59              	70              	1000        	300         	0.1         	0           	Open  	;
 62              	71              	70              	1000        	300         	0.1         	0           	Open  	;
 63              	72              	71              	1000        	300         	0.1         	0           	Open  	;
 64              	73              	72              	1000        	300         	0.1         	0           	Open  	;
 65              	74              	73              	1000        	300         	0.1         	0           	Open  	;
 66              	80              	74              	1000        	300         	0.1         	0           	Open  	;
 67              	81              	80              	1000        	300         	0.1         	0           	Open  	;
 68              	82              	81              	1000        	300         	0.1         	0           	Open  	;
 69              	83              	82              	1000        	300         	0.1         	0           	Open  	;
 70              	84              	83              	1000        	300         	0.1         	0           	Open  	;
 71              	85              	84              	1000        	300         	0.1         	0           	Open  	;
 72              	86              	85              	1000        	300         	0.1         	0           	Open  	;
 73              	87              	86              	1000        	300         	0.1         	0           	Open  	;
 74              	88              	87              	1000        	300         	0.1         	0           	Open  	;
 75              	89              	88              	1000        	300         	0.1         	0           	Open  	;
 76              	90              	89              	1000        	300         	0.1         	0           	Open  	;
 77              	91              	90              	1000        	300         	0.1         	0           	Open  	;
 78              	69              	91              	1000        	300         	0.1         	0           	Open  	;
 79              	90              	93              	1000        	300         	0.1         	0           	Open  	;
 80              	94              	93              	1000        	300         	0.1         	0           	Open  	;
 81              	92              	69              	1000        	300         	0.1         	0           	Open  	;
 82              	109             	92              	1000        	300         	0.1         	0           	Open  	;
 83              	103             	94              	1000        	300         	0.1         	0           	Open  	;
 84              	109             	110             	1000        	300         	0.1         	0           	Open  	;
 85              	113             	110             	1000        	300         	0.1         	0           	Open  	;
 86              	111             	113             	1000        	300         	0.1         	0           	Open  	;
 87              	111             	112             	1000        	300         	0.1         	0           	Open  	;
 88              	108             	112             	1000        	300         	0.1         	0           	Open  	;
 89              	107             	108             	1000        	300         	0.1         	0           	Open  	;
 90              	94              	95              	1000        	300         	0.1         	0           	Open  	;
 91              	103             	104             	1000        	300         	0.1         	0           	Open  	;
 92              	104             	105             	1000        	300         	0.1         	0           	Open  	;
 93              	106             	105             	1000        	300         	0.1         	0           	Open  	;
 94              	102             	101             	1000        	300         	0.1         	0           	Open  	;
 95              	95              	101             	1000        	300         	0.1         	0           	Open  	;
 96              	100             	99              	1000        	300         	0.1         	0           	Open  	;
 97              	98              	99              	1000        	300         	0.1         	0           	Open  	;
 98              	97              	98              	1000        	300         	0.1         	0           	Open  	;
 99              	96              	97              	1000        	300         	0.1         	0           	Open  	;
 100             	95              	96              	1000        	300         	0.1         	0           	Open  	;
 101             	33              	31              	1000        	300         	0.1         	0           	Open  	;
 102             	30              	31              	1000        	300         	0.1         	0           	Open  	;
 103             	32              	28              	1000        	300         	0.1         	0           	Open  	;
 104             	8               	7               	1000        	300         	0.1         	0           	Open  	;
 105             	2               	1               	1000        	300         	0.1         	0           	Open  	;
 106             	9               	10              	1000        	300         	0.1         	0           	Open  	;
 107             	12              	10              	1000        	300         	0.1         	0           	Open  	;
 108             	66              	67              	1000        	300         	0.1         	0           	Open  	;
 109             	68              	67              	1000        	300         	0.1         	0           	Open  	;
 110             	47              	48              	1000        	300         	0.1         	0           	Open  	;

[PUMPS]
;ID              	Node1           	Node2           	Parameters

[VALVES]
;ID              	Node1           	Node2           	Diameter    	Type	Setting     	MinorLoss   

[TAGS]

[DEMANDS]
;Junction        	Demand      	Pattern         	Category

[STATUS]
;ID              	Status/Setting

[PATTERNS]
;ID              	Multipliers

[CURVES]
;ID              	X-Value     	Y-Value

[CONTROLS]


[RULES]


[ENERGY]
 Global Efficiency  	75
 Global Price       	0
 Demand Charge      	0

[EMITTERS]
;Junction        	Coefficient

[QUALITY]
;Node            	InitQual

[SOURCES]
;Node            	Type        	Quality     	Pattern

[REACTIONS]
;Type     	Pipe/Tank       	Coefficient


[REACTIONS]
 Order Bulk            	1
 Order Tank            	1
 Order Wall            	1
 Global Bulk           	0
 Global Wall           	0
 Limiting Potential    	0
 Roughness Correlation 	0

[MIXING]
;Tank            	Model

[TIMES]
 Duration           	0:00 
 Hydraulic Timestep 	1:00 
 Quality Timestep   	0:05 
 Pattern Timestep   	1:00 
 Pattern Start      	0:00 
 Report Timestep    	1:00 
 Report Start       	0:00 
 Start ClockTime    	12 am
 Statistic          	NONE

[REPORT]
 Status             	No
 Summary            	No
 Page               	0

[OPTIONS]
 Units              	LPS
 Headloss           	D-W
 Specific Gravity   	1
 Viscosity          	1
 Trials             	40
 Accuracy           	0.001
 CHECKFREQ          	2
 MAXCHECK           	10
 DAMPLIMIT          	0
 Unbalanced         	Continue 10
 Pattern            	1
 Demand Multiplier  	1.0
 Emitter Exponent   	0.5
 Quality            	None mg/L
 Diffusivity        	1
 Tolerance          	0.01

[COORDINATES]
;Node            	X-Coord         	Y-Coord
 2               	607257.38       	5377232.91      
 3               	607279.69       	5377261.23      
 4               	607293.42       	5377281.82      
 5               	607302.86       	5377296.41      
 6               	607317.45       	5377329.02      
 7               	607332.04       	5377357.34      
 8               	607149.25       	5377434.58      
 9               	607346.63       	5377380.51      
 10              	607356.04       	5377406.06      
 11              	607337.16       	5377438.42      
 12              	607366.83       	5377431.68      
 13              	607189.65       	5377538.68      
 14              	607319.56       	5377554.86      
 15              	607325.35       	5377493.40      
 16              	607375.40       	5377487.78      
 17              	607390.22       	5377552.99      
 18              	607312.59       	5377630.17      
 19              	607305.81       	5377685.77      
 20              	607244.84       	5377661.24      
 21              	607391.31       	5377695.58      
 22              	607398.79       	5377617.79      
 23              	607286.07       	5377752.62      
 24              	607293.56       	5377815.18      
 25              	607374.84       	5377790.05      
 26              	607432.59       	5377718.93      
 27              	607472.16       	5377736.04      
 28              	607439.54       	5377822.66      
 29              	607506.91       	5377752.08      
 30              	607558.78       	5377776.14      
 31              	607511.27       	5377854.92      
 32              	607417.75       	5377878.48      
 33              	607480.46       	5377902.77      
 34              	607595.73       	5377912.20      
 35              	607579.41       	5377785.33      
 36              	607612.40       	5377805.99      
 37              	607640.31       	5377830.27      
 38              	607664.60       	5377853.47      
 39              	607633.06       	5377965.84      
 40              	607701.57       	5377887.18      
 41              	607682.00       	5377869.79      
 42              	607729.96       	5378055.08      
 43              	607684.57       	5378041.00      
 44              	607599.28       	5378019.48      
 45              	607711.18       	5378068.78      
 46              	607687.31       	5378081.69      
 47              	607749.13       	5378075.82      
 48              	607798.82       	5378114.95      
 49              	607824.65       	5377999.13      
 50              	607712.74       	5377898.97      
 51              	607726.83       	5377911.10      
 52              	607739.74       	5377922.84      
 53              	607751.48       	5377932.62      
 54              	607764.78       	5377941.22      
 55              	607774.96       	5377952.57      
 56              	607786.69       	5377964.31      
 57              	607798.82       	5377974.87      
 58              	607809.78       	5377985.44      
 59              	607883.34       	5378051.56      
 60              	607865.73       	5378036.69      
 61              	607850.86       	5378023.39      
 62              	607837.56       	5378011.26      
 63              	607872.54       	5378069.69      
 64              	607853.76       	5378142.51      
 65              	607857.72       	5378158.00      
 66              	607875.18       	5378180.08      
 67              	607964.81       	5378258.84      
 68              	608057.08       	5378341.88      
 69              	608128.22       	5378270.10      
 70              	607892.37       	5378060.07      
 71              	607901.55       	5378067.53      
 72              	607913.60       	5378078.43      
 73              	607927.94       	5378091.63      
 74              	607941.72       	5378103.68      
 80              	607961.23       	5378121.47      
 81              	607979.59       	5378138.12      
 82              	607993.36       	5378151.31      
 83              	608004.84       	5378161.64      
 84              	608014.60       	5378170.83      
 85              	608028.94       	5378183.45      
 86              	608043.86       	5378197.80      
 87              	608059.93       	5378210.42      
 88              	608074.28       	5378224.77      
 89              	608086.90       	5378236.24      
 90              	608101.25       	5378248.87      
 91              	608113.87       	5378259.77      
 92              	608151.75       	5378287.32      
 93              	608155.76       	5378233.95      
 94              	608207.99       	5378224.19      
 95              	608249.30       	5378157.63      
 96              	608183.88       	5378114.01      
 97              	608141.42       	5378085.32      
 98              	608072.56       	5378034.82      
 99              	608028.37       	5378003.83      
 100             	607970.98       	5377963.09      
 101             	608299.80       	5378088.76      
 102             	608323.90       	5378054.91      
 103             	608276.27       	5378216.16      
 104             	608344.56       	5378202.96      
 105             	608399.65       	5378194.93      
 106             	608452.45       	5378184.60      
 107             	608780.92       	5378835.04      
 108             	608741.14       	5378808.84      
 109             	608178.34       	5378313.97      
 110             	608214.25       	5378346.96      
 111             	608366.59       	5378482.80      
 112             	608458.77       	5378569.16      
 113             	608282.17       	5378407.12      
 1               	607166.41       	5377171.12      

[VERTICES]
;Link            	X-Coord         	Y-Coord
 105             	607162.99       	5377162.53      

[LABELS]
;X-Coord           Y-Coord          Label & Anchor Node

[BACKDROP]
 DIMENSIONS     	606269.00       	5376926.00      	610044.00       	5379039.00      
 UNITS          	Metros
 FILE           	
 OFFSET         	0.00            	0.00            

[END]
